10
i11   0   doublet
C            2.686937   -0.153442    0.000001
C            1.473038   -0.004317    0.000002
C            0.144357    0.072001   -0.000003
C           -1.084627    0.505840    0.000001
C           -2.315455   -0.356775    0.000000
H          -2.057095   -1.411884    0.000019
H          -2.927248   -0.144638    0.877792
H          -2.927231   -0.144664   -0.877810
H           3.741098   -0.261820   -0.000006
H          -1.255025    1.583166    0.000001
