10
i13   0   doublet
C            2.597689   -0.037579   -0.000050
H           2.967680   -0.538924    0.894476
H           3.027604    0.964877   -0.026021
C            1.148068    0.010254    0.000186
C           -0.076534    0.040959   -0.000192
C           -1.401586    0.162762   -0.000073
C           -2.680561   -0.084728    0.000044
H          -3.418167    0.709973    0.000180
H           2.966520   -0.584223   -0.868175
H          -3.066085   -1.101705    0.000050
