10
i17   0   doublet
C           -2.565278    0.177938   -0.000114
H          -2.959343    1.182951    0.000036
H          -3.264706   -0.644358   -0.000283
C           -1.230748   -0.045076   -0.000056
C           -0.013963   -0.238563    0.000004
C            1.362824   -0.487708    0.000114
H           1.666950   -1.527923    0.000328
C            2.307045    0.470212    0.000035
H           3.354539    0.211491    0.000163
H           2.043281    1.517021   -0.000140
