10
i19    0   doublet
C           -2.365318   -0.439535   -0.000006
H          -2.877101   -0.696978    0.922691
C           -1.204111    0.138946    0.000161
C            0.000000    0.758593   -0.000215
C            1.204093    0.138906    0.000405
C            2.365326   -0.439521   -0.000074
H           2.877328   -0.697039    0.922480
H           2.876220   -0.697635   -0.923089
H          -2.876407   -0.697738   -0.922885
H           0.000015    1.845053   -0.000823
