10
i2   0   doublet
C            2.062004    0.336706    0.000604
C            0.996262   -0.558050   -0.000230
C           -1.353892    0.807367    0.000154
C           -0.317932   -0.196148   -0.001921
C           -1.720806   -0.461897    0.000989
H           3.079911   -0.016279    0.000975
H           1.895038    1.403231    0.000818
H           1.206451   -1.620178   -0.000271
H          -1.649533    1.839321   -0.000723
H          -2.525679   -1.173958    0.001626
