10
i22   0   doublet
C           -0.609013    0.976400    0.000272
C            0.732834    0.916699   -0.000352
C            1.179471   -0.497632    0.000435
C           -1.177466   -0.424298   -0.000111
C            0.073044   -1.231460   -0.000412
H          -1.216699    1.866705    0.000044
H           1.407774    1.759121   -0.000745
H           2.204970   -0.827232    0.000454
H          -1.795333   -0.618822   -0.878637
H          -1.793927   -0.618026    0.879904
