10
i42   0   doublet
C            2.005346    0.269606   -0.194308
C            0.995164   -0.512606    0.086794
C           -1.248156    0.772772    0.160261
C           -0.392810   -0.448171    0.498321
C           -1.494197   -0.289513   -0.526764
H           2.955846   -0.114012   -0.541772
H           1.930321    1.351667   -0.085615
H          -1.419888    1.809380    0.377703
H          -2.036457   -0.798896   -1.300313
H          -0.621908   -1.000660    1.404178
