10
i6   0   doublet
C            1.860919   -0.788526    0.000102
H           2.921414   -0.615640    0.000759
C            0.763146   -0.118639   -0.000464
C           -0.654355    0.001361   -0.000658
C           -1.832491   -0.596388    0.000151
H          -2.746907   -0.020904    0.000902
H          -1.908132   -1.673755   -0.000199
C            0.097942    1.272110    0.000365
H           0.160996    1.844759    0.917425
H           0.161666    1.846031   -0.915853
