9
p1   0   singlet
C            2.379481   -0.465525    0.000103
C            1.301463    0.077775    0.000275
C            0.052925    0.760178   -0.000127
C           -1.109886    0.150466   -0.000070
C           -2.268191   -0.439307    0.000021
H          -2.765013   -0.696369   -0.926142
H          -2.765285   -0.695561    0.926262
H           3.320228   -0.953811   -0.000944
H           0.075322    1.844213   -0.000383
