9
p2   0   singlet
C           -2.233165   -0.577439   -0.000072
C           -1.221477    0.074205   -0.000088
C            1.221758    0.074691   -0.000001
C            2.233002   -0.577642   -0.000023
H           3.120217   -1.157452    0.000107
C           -0.000018    0.880415    0.000044
H          -0.000110    1.534641   -0.874186
H          -3.120537   -1.157010    0.000506
H          -0.000171    1.534450    0.874417
