9
p6   0   singlet
C           -2.585155   -0.000067    0.000207
H          -3.144592    0.665645   -0.643673
C           -1.274098   -0.000027   -0.000055
C            0.000002    0.000177   -0.000457
C            1.274102   -0.000001   -0.000202
C            2.585149   -0.000037    0.000241
H           3.144249    0.644033    0.666046
H          -3.144306   -0.665748    0.644363
H           3.144642   -0.644200   -0.665144
