9
p8   0   singlet
C           -1.526255   -0.710272    0.000023
C           -0.248500    0.105786   -0.000051
C            2.344652   -0.067889    0.000036
C            1.139938    0.035073   -0.000092
C           -1.359984    0.778917    0.000077
H           -1.822811   -1.216764   -0.913134
H           -1.823045   -1.216857    0.913056
H            3.401909   -0.147124    0.000228
H           -1.855160    1.731050   -0.000100
