9
p9   0   singlet
C            2.293491   -0.000114    0.000164
C            0.983781    0.000190   -0.000504
C           -1.604099    0.654719    0.000118
C           -0.305748    0.000299    0.000218
C           -1.603956   -0.654986   -0.000150
H            2.863989    0.000144   -0.921583
H            2.863332   -0.000620    0.922259
H           -2.154068    1.577473    0.000011
H           -2.154064   -1.577645    0.000232
