10
ts_i2_i41   0   doublet
C           -2.183810    0.218611    0.094683
C           -0.929031   -0.398487   -0.241353
C            1.498749    0.761926   -0.049030
C            0.350747   -0.135811   -0.047579
C            1.726850   -0.527150    0.104286
H          -3.023617    0.079212   -0.571081
H          -2.268548    0.981484    0.862790
H          -1.842495   -1.017090    0.422308
H           1.905896    1.753705   -0.130720
H           2.447738   -1.311850    0.250669
