10
ts_i9_p1   0   doublet
C            1.104389    0.088590    0.000000
C            0.000000    0.814234    0.000000
C           -1.294776    0.215118    0.000000
C            1.974226   -0.901539    0.000000
C           -2.411438   -0.250098    0.000000
H           2.331960    1.547606    0.000000
H           0.053752    1.896662    0.000000
H           2.382773   -1.284779    0.928928
H           2.382773   -1.284779   -0.928928
H          -3.385662   -0.672544    0.000000
