10
ts_i13_p6   0   doublet
C            2.487519   -0.145299    0.000000
H           3.042211   -0.221663   -0.925031
H           3.083457    1.877199    0.000001
C            1.176424   -0.121585    0.000001
C           -0.090639   -0.060943    0.000001
C           -1.362640   -0.001193    0.000000
C           -2.664352    0.060850    0.000000
H          -3.267207   -0.837694   -0.000033
H           3.042212   -0.221731    0.925025
H          -3.178544    1.012919    0.000032
