10
ts_i10_p1   0   doublet
C           -2.514728   -0.395643   -0.000253
C           -1.411233    0.092918   -0.000150
C           -0.129269    0.711392   -0.000029
C            1.002023    0.051133    0.000104
C            2.189671   -0.502610    0.000240
H           3.468902    0.962392    0.000340
H           2.644038   -0.833370    0.924477
H           2.644232   -0.833406   -0.923889
H          -3.479043   -0.835773   -0.000345
H          -0.096911    1.797012   -0.000048
