10
ts_i10_p3   0   doublet
C            2.704893   -0.159419    0.000003
C            1.506741   -0.014471   -0.000001
C            0.139365    0.167505   -0.000006
C           -1.055239   -0.093515   -0.000004
C           -2.504126   -0.117425    0.000003
H          -2.896060    0.902111    0.000082
H          -2.886172   -0.628764   -0.882693
H          -2.886161   -0.628895    0.882627
H           3.755933   -0.296527    0.000007
H           0.162650    1.956024    0.000006
