10
ts_i19_p1   0   doublet
C           -2.344543   -0.458770   -0.044864
H          -2.787200   -0.950300    0.816951
C           -1.196000    0.140589    0.035697
C           -0.040997    0.764367    0.121846
C            1.215760    0.147692   -0.112849
C            2.307230   -0.350101   -0.256256
H           2.821920   -1.072399    1.829400
H           3.249652   -0.764582   -0.517875
H          -2.899206   -0.495409   -0.978304
H          -0.033865    1.820021    0.388386
