10
ts_i41_i12   0   doublet
C            2.299375    0.162098    0.000014
C            0.921764   -0.313448    0.000015
C           -1.729042    0.766009   -0.000060
C           -0.327028   -0.267922    0.000011
C           -1.721316   -0.538721    0.000019
H           2.842125   -0.181641   -0.880642
H           2.842049   -0.181426    0.880801
H           2.327603    1.255977   -0.000119
H          -2.315017    1.669902   -0.000114
H          -2.359275   -1.410908    0.000073
