10
ts_i2_i42   0   doublet
C            2.143885    0.239922   -0.014310
C            1.009528   -0.563298   -0.138085
C           -1.387338    0.808205   -0.050147
C           -0.302835   -0.173177    0.033872
C           -1.706167   -0.472546   -0.003038
H           3.004779    0.032736   -0.630676
H           2.271777    0.963765    0.782488
H           0.396965   -0.637188    1.057024
H          -1.731498    1.822183   -0.149258
H          -2.484460   -1.216126   -0.029330
