10
ts_i17_i13   0   doublet
C           -2.638145    0.087733    0.023331
H          -3.142474    1.008270   -0.242424
H          -3.258440   -0.752010    0.310927
C           -1.328878   -0.008924   -0.007552
C           -0.054029   -0.082376   -0.034614
C            1.216999   -0.268131   -0.134772
H           1.993458   -0.890491    0.635789
C            2.526999    0.228470    0.025828
H           3.340003   -0.264503   -0.485126
H           2.729776    1.158104    0.547513
