10
ts_i9_i10   0   doublet
C            2.209563   -0.567900   -0.029612
C            1.229154    0.139396    0.011200
C            0.069313    0.957416    0.050939
C           -1.152214    0.449982   -0.181223
C           -1.836462   -0.764975    0.031744
H          -2.269357    0.427074    0.455813
H          -2.645035   -1.037515   -0.631597
H          -1.477354   -1.510082    0.737166
H           3.072312   -1.182208   -0.066207
H           0.203310    2.019216    0.206540
