10
ts_i11_p4   0   doublet
C            2.570526   -0.472643   -0.000001
C            1.471044    0.030331    0.000001
C            0.239776    0.611559    0.000005
C           -0.926447    0.972920    0.000007
C           -2.400874   -0.802412   -0.000004
H           3.532808   -0.917430   -0.000001
H          -1.741674    1.654637    0.000022
H          -1.697751   -1.618241    0.000322
H          -2.909077   -0.578652    0.924512
H          -2.908461   -0.578846   -0.924904
