10
ts_i5_i8   0   doublet
C           -2.343629   -0.511657    0.054805
C           -1.304706    0.096472    0.032629
C           -0.043674    0.830923    0.007243
H          -0.096444    1.616871   -0.747534
C            1.139809   -0.044747   -0.279603
C            2.283988   -0.467223    0.142945
H           3.023621   -0.444297    0.937818
H           1.821365   -0.868916   -0.986646
H          -3.257808   -1.047416    0.075133
H           0.118535    1.321147    0.973116
