10
ts_i18_p5   0   doublet
C           1.844863   -0.323589   -0.080710
H           2.599882    0.283010   -0.567852
C           0.649497    0.183869    0.132360
C          -1.124663   -1.003578    0.053986
H          -0.939691   -1.260837    1.088990
C          -1.375000    0.318726   -0.267958
C          -0.338404    1.146704    0.083763
H          -0.298318    2.196953    0.320581
H           2.112595   -1.323592    0.219461
H          -1.412222   -1.828329   -0.589827
