10
ts_i13_p3   0   doublet
C           -2.601988    0.061611   -0.000070
H          -2.980921    0.324724    0.991993
H          -3.041656   -0.898881   -0.285432
C           -1.151608   -0.011250    0.000259
C            0.057199   -0.071353    0.000173
C            1.416395   -0.142968    0.000036
C            2.628659   -0.158025   -0.000120
H           3.678488   -0.319348   -0.000268
H          -2.955222    0.817440   -0.707949
H           3.207372    2.007970   -0.000019
