10
ts_i42_i20   0   doublet
C            2.138960    0.289953   -0.178427
C            1.009232   -0.291791    0.104846
C           -1.589922    0.753617    0.108678
C           -0.281143   -0.506412    0.475442
C           -1.429647   -0.382381   -0.473314
H           2.980592   -0.252477   -0.592247
H           2.284039    1.354105   -0.005139
H          -2.063982    1.712238    0.204980
H          -0.463602   -0.982482    1.429540
H          -1.821923   -1.009300   -1.260488
