10
ts_i22_i23   0   doublet
C           -0.653323    0.961359   -0.015115
C            0.739552    0.887425    0.001041
C            1.172713   -0.453670   -0.032501
C           -1.172605   -0.358440   -0.054758
C            0.013469   -1.219484   -0.056080
H          -1.249320    1.853793    0.075462
H           1.402054    1.734523    0.093306
H           2.186103   -0.810352    0.003279
H          -2.180965   -0.690201   -0.228103
H          -0.756707   -0.990910    1.000535
