10
ts_i17_p5   0   doublet
C            2.573286    0.090962    0.046736
H           3.367531   -0.532208    0.437059
C            1.317863   -0.314679    0.043801
C            0.033472   -0.035724   -0.173818
C           -1.249494    0.016324   -0.000422
C           -2.582404   -0.019841    0.068547
H          -3.123071   -0.774312   -0.482431
H          -3.134224    0.691527    0.660614
H           2.865637    1.063713   -0.341715
H          -0.532213    1.129026   -0.182594
