10
ts_i5_i6     0     doublet
C            2.028638   -0.654378    0.000000
C            1.032450    0.077695    0.000000
C           -0.789846   -0.015470    0.000000
C           -1.949875   -0.620290    0.000000
C            0.056650    1.171934    0.000000
H           2.568308   -1.574093    0.000000
H          -2.888128   -0.059110    0.000000
H          -2.036576   -1.703405    0.000000
H           0.044145    1.789832    0.902968
H           0.044145    1.789832   -0.902968
